*Heading
** Job name: Torsion1 Model name: Model-1
** Generated by: Abaqus/CAE 2021
*Preprint, echo=NO, model=NO, history=NO, contact=NO
**
** PARTS
**
*Part, name="fus tim v1 v1"
*Node
      1,   36.1573143,          40.,         500.
      2,   36.2219048,          40.,         400.
      3,           0.,  -70.5365982,         400.
      4, -2.64022719e-06,  -68.3542633,         500.
      5,   37.2686501,          40.,         400.
      6,           0.,  -71.5367813,         400.
      7,           0.,  -69.3546524,         500.
      8,   37.2029152,          40.,         500.
      9,  -36.2215004,          40.,         400.
     10,  -36.1565895,          40.,         500.
     11,  -37.2029152,          40.,         500.
     12,  -37.2686501,          40.,         400.
     13,  0.003746317,   58.3825035,         500.
     14,           0.,   57.3715591,   749.994507
     15,           0.,    39.007988,    1549.8739
     16,           0.,  -59.9450989,   749.957153
     17,           0.,  -34.6564026,   1170.23462
     18,           0.,  0.993885815,   1549.88953
     19,           0.,   59.3825302,         500.
     20,           0.,   58.3715515,   749.998413
** ... 7564 like lines cut
*Element, type=C3D8R
 1,   8,  76, 765,  97,   1,  33, 701,  72
 2,  76,  75, 766, 765,  33,  34, 702, 701
 3,  75,  74, 767, 766,  34,  35, 703, 702
 4,  74,  73, 768, 767,  35,  36, 704, 703
 5,  73,   5,  92, 768,  36,   2,  37, 704
 6,  97, 765, 769,  98,  72, 701, 705,  71
 7, 765, 766, 770, 769, 701, 702, 706, 705
 8, 766, 767, 771, 770, 702, 703, 707, 706
 9, 767, 768, 772, 771, 703, 704, 708, 707
10, 768,  92,  91, 772, 704,  37,  38, 708
11,  98, 769, 773,  99,  71, 705, 709,  70
12, 769, 770, 774, 773, 705, 706, 710, 709
13, 770, 771, 775, 774, 706, 707, 711, 710
14, 771, 772, 776, 775, 707, 708, 712, 711
15, 772,  91,  90, 776, 708,  38,  39, 712
16,  99, 773, 777, 100,  70, 709, 713,  69
17, 773, 774, 778, 777, 709, 710, 714, 713
18, 774, 775, 779, 778, 710, 711, 715, 714
19, 775, 776, 780, 779, 711, 712, 716, 715
20, 776,  90,  89, 780, 712,  39,  40, 716
** ... 3724 like lines cut
*Nset, nset=Set-7, generate
    1,  7584,     1
*Elset, elset=Set-7, generate
    1,  3744,     1
*Orientation, name=Ori-1
          0.,           1.,           0.,           0.,           0.,           1.
3, 90.
** Region: (Section-1:Set-7), (Material Orientation:Picked)
*Elset, elset=_I1, internal
    1,    2,    3,    4,    5,    6,    7,    8,    9,   10,   11,   12,   13,   14,   15,   16
   17,   18,   19,   20,   21,   22,   23,   24,   25,   26,   27,   28,   29,   30,   31,   32
   33,   34,   35,   36,   37,   38,   39,   40,   41,   42,   43,   44,   45,   46,   47,   48
   49,   50,   51,   52,   53,   54,   55,   56,   57,   58,   59,   60,   61,   62,   63,   64
   65,   66,   67,   68,   69,   70,   71,   72,   73,   74,   75,   76,   77,   78,   79,   80
   81,   82,   83,   84,   85, 1478, 1479, 1480, 1481, 1482, 1483, 1484, 1485, 1486, 1487, 1488
 1489, 1490, 1491, 1492, 1493, 1494, 1495, 1496, 1497, 1498, 1499, 1500, 1501, 1502, 1503, 1504
 1505, 1506, 1507, 1508, 1509, 1510, 1511, 1512, 1513, 1514, 1515, 1516, 1517, 1518, 1519, 1520
 1521, 1522, 1523, 1524, 1525, 1526, 1527, 1528, 1529, 1530, 1531, 1532, 1533, 1534, 1535, 1536
 1537, 1538, 1539, 1540, 1541, 1542, 1543, 1544, 1545, 1546, 1547, 1548, 1549, 1550, 1551, 1552
 1553, 1554, 1555, 1556, 1557, 1558, 1559, 1560, 1561, 1562, 1563, 1564, 1565, 1566, 1567, 1568
 1569, 1570, 1571, 1572, 1573, 1574, 1575, 1576, 1577, 1578, 1579, 1580, 1581, 1582, 1583, 1584
 1585, 1586, 1587, 1588, 1589, 1590, 1591, 1592, 1593, 1594, 1595, 1596, 1597, 1598, 1599, 1600
 1601, 1602, 1603, 1604, 1605, 1606, 1607, 1608, 1609, 1610, 1611, 1612, 1613, 1614, 1615, 1616
 1617, 1618, 1619, 1620, 1621, 1622, 1623, 1624, 1625, 1626, 1627, 1628, 1629, 1630, 1631, 1632
 1633, 1634, 1635, 1636, 1637, 1638, 1639, 1640, 1641, 1642, 1643, 1644, 1645, 1646, 1647, 1648
 1649, 1650, 1651, 1652, 1653, 1654, 1655, 1656, 1657, 1658, 1659, 1660, 1661, 1662, 1663, 1664
 1665, 1666, 1667, 1668, 1669, 1670, 1671, 1672, 1673, 1674, 1675, 1676, 1677, 1678, 1679, 1680
 1681, 1682, 1683, 1684, 1685, 1686, 1687, 1688, 1689, 1690, 1691, 1692, 1693, 1694, 1695, 1696
 1697, 1698, 1699, 1700, 1701, 1702, 1703, 1704, 1705, 1706, 1707, 1708, 1709, 1710, 1711, 1712
** ... 97 like lines cut
** Section: Section-1
*Solid Section, elset=_I1, composite, orientation=Ori-1, layup=Fuse Layup, symmetric
1., 1, "Carbon Fiber AS4D 9340", 0., 1
1., 1, "Carbon Fiber AS4D 9340", 90., 2
*Orientation, name=Ori-2
          0.,           1.,           0.,           0.,           0.,           1.
3, 90.
** Region: (Section-1:Set-7), (Material Orientation:Picked)
*Elset, elset=_I2, internal
   86,   87,   88,   89,   90,   91,   92,   93,   94,   95,   96,   97,   98,   99,  100,  101
  102,  103,  104,  105,  106,  107,  108,  109,  110,  111,  112,  113,  114,  115,  116,  117
  118,  119,  120,  121,  122,  123,  124,  125,  126,  127,  128,  129,  130,  131,  132,  133
  134,  135,  136,  137,  138,  139,  140,  141,  142,  143,  144,  145,  146,  147,  148,  149
  150,  151,  152,  153,  154,  155,  156,  157,  158,  159,  160,  161,  162,  163,  164,  165
  166,  167,  168,  169,  170,  171,  172,  173,  174,  175,  176,  177,  178,  179,  180,  181
  182,  183,  184,  185,  186,  187,  188,  189,  190,  191,  192,  193,  194,  195,  196,  197
  198,  199,  200,  201,  202,  203,  204,  205,  206,  207,  208,  209,  210,  211,  212,  213
  214,  215,  216,  217,  218,  219,  220,  221,  222,  223,  224,  225,  226,  227,  228,  229
  230,  231,  232,  233,  234,  235,  236,  237,  238,  239,  240,  241,  242,  243,  244,  245
  246,  247,  248,  249,  250,  251,  252,  253,  254,  255,  256,  257,  258,  259,  260,  261
  262,  263,  264,  265,  266,  267,  268,  269,  270,  271,  272,  273,  274,  275,  276,  277
  278,  279,  280,  281,  282,  283,  284,  285,  286,  287,  288,  289,  290,  291,  292,  293
  294,  295,  296,  297,  298,  299,  300,  301,  302,  303,  304,  305,  306,  307,  308,  309
  310,  311,  312,  313,  314,  315,  316,  317,  318,  319,  320,  321,  322,  323,  324,  325
  326,  327,  328,  329,  330,  331,  332,  333,  334,  335,  336,  337,  338,  339,  340,  341
  342,  343,  344,  345,  346,  347,  348,  349,  350,  351,  352,  353,  354,  355,  356,  357
  358,  359,  360,  361,  362,  363,  364,  365,  366,  367,  368,  369,  370,  371,  372,  373
  374,  375,  376,  377,  378,  379,  380,  381,  382,  383,  384,  385,  386,  387,  388,  389
  390,  391,  392,  393,  394,  395,  396,  397,  398,  399,  400,  401,  402,  403,  404,  405
** ... 97 like lines cut
** Section: Section-1
*Solid Section, elset=_I2, composite, orientation=Ori-2, layup=Fuse Layup, symmetric
1., 1, "Carbon Fiber AS4D 9340", 0., 1
1., 1, "Carbon Fiber AS4D 9340", 90., 2
*End Part
**  
**
** ASSEMBLY
**
*Assembly, name=Assembly
**  
*Instance, name="fus tim v1 v1-1", part="fus tim v1 v1"
*End Instance
**  
*Node
      1,           0.,    39.007988,    1549.8739
*Nset, nset=Set-1, instance="fus tim v1 v1-1"
    5,    8,   11,   12,   19,   26,   73,   74,   75,   76,  149,  150,  151,  152,  315,  316
  317,  318,  319,  320,  455,  456,  457,  458,  459,  460,  461,  462,  463,  464,  477,  478
  479,  480,  481,  482,  483,  484,  485,  486,  487,  488, 3373, 3374, 3375, 3376, 3377, 3378
 3379, 3380, 3381, 3382, 3383, 3384, 3385, 3386, 3387, 3388, 3389, 3390, 3391, 3392, 3393, 3394
 3395, 3396, 3421, 3422, 3423, 3424, 3425, 3426, 3427, 3428, 3429, 3430, 3431, 3432, 3433, 3434
 3435, 3436, 3437, 3438, 3439, 3440, 3441, 3442, 3443, 3444
*Elset, elset=Set-1, instance="fus tim v1 v1-1", generate
 1443,  1512,     1
*Nset, nset=Set-4
 1,
*Nset, nset=p_Set-2, instance="fus tim v1 v1-1"
  15,  18, 242, 243, 244, 245, 246, 247, 248, 249, 250, 251, 252, 253, 254, 255
 256, 257, 258, 259, 260, 261, 262, 263, 264, 489, 490, 491, 492, 493, 494, 495
 496, 497, 498, 499, 500, 501, 502, 503, 504, 505, 506, 507, 508, 509, 510, 511
*Elset, elset=p_Set-2, instance="fus tim v1 v1-1"
 1419, 1420, 1421, 1422, 1423, 1424, 1425, 1426, 1427, 1428, 1429, 1430, 1431, 1432, 1433, 1434
 1435, 1436, 1437, 1438, 1439, 1440, 1441, 1442, 2761, 2762, 2763, 2764, 2765, 2766, 2767, 2768
 2769, 2770, 2771, 2772, 2773, 2774, 2775, 2776, 2777, 2778, 2779, 2780, 2781, 2782, 2783, 2784
*Nset, nset=_PickedSet7, internal
 1,
** Constraint: Constraint-1
*Rigid Body, ref node=_PickedSet7, pin nset=p_Set-2
*End Assembly
** 
** MATERIALS
** 
** Elastic and failure data from Barbero
*Material, name="Carbon Fiber AS4D 9340"
*Elastic, type=ENGINEERING CONSTANTS
133000., 7710., 7710., 0.301, 0.301, 0.396, 4310., 4310.
 2760.,
*Fail Stress
1830.,-1096.,   57., -228.,   71.,   -1.,    0.
** ----------------------------------------------------------------
** 
** STEP: Step-1
** 
*Step, name=Step-1, nlgeom=NO
*Static
1., 1., 1e-05, 1.
** 
** BOUNDARY CONDITIONS
** 
** Name: BC-1 Type: Displacement/Rotation
*Boundary
Set-1, 1, 1
Set-1, 2, 2
Set-1, 3, 3
Set-1, 4, 4
Set-1, 5, 5
Set-1, 6, 6
** 
** LOADS
** 
** Name: Load-1   Type: Moment
*Cload
Set-4, 6, 1000.
** 
** OUTPUT REQUESTS
** 
*Restart, write, frequency=0
** 
** FIELD OUTPUT: F-Output-1
** 
*Output, field
*Node Output
CF, RF, U, UR
*Element Output, directions=YES
LE, PE, PEEQ, PEMAG, S
*Contact Output
CDISP, CSTRESS
** 
** HISTORY OUTPUT: H-Output-1
** 
*Output, history, variable=PRESELECT
*End Step
